LAMMPS (3 Aug 2022)
#=======================================
# Sodium-Chloride in Stockmayer Fluid (water dipole)
#   Created by Chris Balzer (balzer@caltech.edu)
#   See README.md for description
#==================================

#======
# Parameters
#======
# Initialize the system set up
units		      lj
boundary	    p p p
atom_style	  hybrid dipole sphere
atom_modify   map yes

# Read in input data
read_data	    system.data
Reading data file ...
  orthogonal box = (0 0 0) to (10.3464 10.3464 10.3464)
  reading atoms ...
  1002 atoms

# Group atoms
group         solvent  type 1
1000 atoms in group solvent
group         ions     type 2 3
2 atoms in group ions
group         anion    type 2
1 atoms in group anion
group         cation   type 3
1 atoms in group cation
group2ndx     groups.ndx cation anion
Writing groups to index file groups.ndx:
 writing group cation...done
 writing group anion...done

# Set mass and diameter of spheres
set type      1 mass 1.0 # solvent
Setting atom values ...
  1000 settings made for mass
set type      2 mass 3.9411 # anion
Setting atom values ...
  1 settings made for mass
set type      3 mass 1.2767 # cation
Setting atom values ...
  1 settings made for mass
set type      1 diameter 1.0 # solvent
Setting atom values ...
  1000 settings made for diameter
set type      2 diameter 1.2067 # anion
Setting atom values ...
  1 settings made for diameter
set type      3 diameter 0.6533 # cation
Setting atom values ...
  1 settings made for diameter

# Set charge of ions
set type      2 charge -13.626 # anion
Setting atom values ...
  1 settings made for charge
set type      3 charge  13.626 # cation
Setting atom values ...
  1 settings made for charge

# Non-bonded interactions
pair_style	  lj/cut/dipole/long 1.12246204831 5.06974
pair_coeff	  1 1 1.0 1.0 1.122462 # solvent
pair_coeff	  2 2 1.0 1.2067 1.354438 # anion
pair_coeff	  3 3 1.0 0.6533 0.733342 # cation
kspace_style  ewald/disp 1e-4
pair_modify   shift yes mix geometric

# Set dipole
set group solvent dipole/random 4321 1.7494
Setting atom values ...
  1000 settings made for dipole/random

# Neighbor settings
neighbor	    0.4 bin
neigh_modify every 1 delay 0 one 10000

# Temperature computation
compute tempSph all  temp/sphere

# Distance between ions
compute ionDist ions pair/local dist
compute avgIonDist ions reduce ave c_ionDist

# Variables for output
variable Step  equal "step"
variable Temp  equal "c_tempSph"
variable EPot  equal "pe"
variable IonDist equal "c_avgIonDist"

#####################################################
# Minimization
minimize 0.0 1.0e-8 100000 100000

CITE-CITE-CITE-CITE-CITE-CITE-CITE-CITE-CITE-CITE-CITE-CITE-CITE

Your simulation uses code contributions which should be cited:

- GPU package (short-range, long-range and three-body potentials):

@Article{Brown11,
 author = {W. M. Brown, P. Wang, S. J. Plimpton, A. N. Tharrington},
 title = {Implementing Molecular Dynamics on Hybrid High Performance Computers - Short Range Forces},
 journal = {Comp.~Phys.~Comm.},
 year =    2011,
 volume =  182,
 pages =   {898--911}
}

@Article{Brown12,
 author = {W. M. Brown, A. Kohlmeyer, S. J. Plimpton, A. N. Tharrington},
 title = {Implementing Molecular Dynamics on Hybrid High Performance Computers - Particle-Particle Particle-Mesh},
 journal = {Comp.~Phys.~Comm.},
 year =    2012,
 volume =  183,
 pages =   {449--459}
}

@Article{Brown13,
 author = {W. M. Brown, Y. Masako},
 title = {Implementing Molecular Dynamics on Hybrid High Performance Computers â€“ Three-Body Potentials},
 journal = {Comp.~Phys.~Comm.},
 year =    2013,
 volume =  184,
 pages =   {2785--2793}
}

@Article{Trung15,
 author = {T. D. Nguyen, S. J. Plimpton},
 title = {Accelerating dissipative particle dynamics simulations for soft matter systems},
 journal = {Comput.~Mater.~Sci.},
 year =    2015,
 volume =  100,
 pages =   {173--180}
}

@Article{Trung17,
 author = {T. D. Nguyen},
 title = {GPU-accelerated Tersoff potentials for massively parallel Molecular Dynamics simulations},
 journal = {Comp.~Phys.~Comm.},
 year =    2017,
 volume =  212,
 pages =   {113--122}
}

@Article{Nikolskiy19,
 author = {V. Nikolskiy, V. Stegailov},
 title = {GPU acceleration of four-site water models in LAMMPS},
 journal = {Proceeding of the International Conference on Parallel Computing (ParCo 2019), Prague, Czech Republic},
 year =    2019
}

CITE-CITE-CITE-CITE-CITE-CITE-CITE-CITE-CITE-CITE-CITE-CITE-CITE

EwaldDisp initialization ...
Generated 3 of 3 mixed pair_coeff terms from geometric mixing rule
  G vector = 0.55961375,   accuracy = 0.0001
Generated 3 of 3 mixed pair_coeff terms from geometric mixing rule
  update every 1 steps, delay 0 steps, check yes
  vectors: nbox = 7, nkvec = 709
Step          Temp          E_pair         E_mol          TotEng         Press
0   0              1.2172349      0              1.2172349      11.128454
Loop time of 25.6347 on 1 procs for 1042 steps with 1002 atoms

Minimization stats:
  Stopping criterion = linesearch alpha is zero
  Energy initial, next-to-last, final =
  Force two-norm initial, final = 1097.5728 26.006834
  Force max component initial, final = 103.93378 13.323729
  Final line search alpha, max atom move = 0.0003174805 0.004230024
  Iterations, force evaluations = 1042 2237

reset_timestep 0

#####################################################
# Initialization (NVT Sphere with spring)

velocity       all create 1.0 4928459
fix		         1 all nve/sphere update dipole
fix            2 all langevin 1.0 1.0 1.0 532123 omega yes
fix            3 ions recenter 0.5 0.5 0.5 units fraction shift all
fix            4 cation spring couple anion 50.0 0.0 0.0 0.0 1.25

thermo		     10000
thermo_style	 custom step temp c_tempSph press etotal pe ke epair ecoul elong evdwl enthalpy
thermo_modify  norm no
dump	       	 1 all custom 10000 dump.dipoleInit id type x y z q mux muy muz

timestep	     0.005
run		         100000
EwaldDisp initialization ...
Generated 3 of 3 mixed pair_coeff terms from geometric mixing rule
  G vector = 0.55961375,   accuracy = 0.0001
Generated 3 of 3 mixed pair_coeff terms from geometric mixing rule
Step          Temp        c_tempSph        Press          TotEng         PotEng         KinEng         E_pair         E_coul         E_long         E_vdwl        Enthalpy
0   1              0.49975037     3.5421807     -3807.0501     -5308.5501      1501.5        -5308.5501     -5841.8128     -273.69499      806.95766      116.13234
Averages over the last 6 of 11 rows, steps 50000 to 100000:
Temp c_tempSph Press TotEng PotEng KinEng E_pair E_coul E_long E_vdwl Enthalpy
1.00175 0.998157 7.38649 -2691.25 -4195.38 1504.13 -4195.38 -5473.54 -299.087 1577.25 5489.74
Loop time of 1152.44 on 1 procs for 100000 steps with 1002 atoms

undump         1
unfix          1
unfix          2
unfix          3
unfix          4

#####################################################
# Equilibration (NVT Sphere with colvars)

fix		         1 all nve/sphere update dipole
fix            2 all langevin 1.0 1.0 1.0 532123 omega yes
fix            3 ions colvars input.colvars output equil

thermo		     10000
thermo_style	 custom step temp c_tempSph press etotal pe ke epair ecoul elong evdwl enthalpy
thermo_modify  norm no
dump	       	 1 all custom 10000 dump.dipoleEquil id type x y z q mux muy muz

timestep	     0.005
run		         500000
EwaldDisp initialization ...
Generated 3 of 3 mixed pair_coeff terms from geometric mixing rule
  G vector = 0.55961375,   accuracy = 0.0001
Generated 3 of 3 mixed pair_coeff terms from geometric mixing rule
colvars: Creating proxy instance
colvars: ----------------------------------------------------------------------
colvars: Initializing the collective variables module, version 2022-05-24.
colvars: Please cite Fiorin et al, Mol Phys 2013:
colvars:   https://doi.org/10.1080/00268976.2013.813594
colvars: as well as all other papers listed below for individual features used.
colvars: This version was built with the C++11 standard or higher.
colvars: Using LAMMPS interface, version "2022-05-09".
colvars: ----------------------------------------------------------------------
colvars: Reading new configuration from file "input.colvars":
colvars: # units = "" [default]
colvars: # indexFile = "groups.ndx"
colvars: The following index groups are currently defined:
colvars:   cation (1 atoms)
colvars:   anion (1 atoms)
colvars: # smp = on [default]
colvars: # colvarsTrajFrequency = 1000
colvars: # colvarsRestartFrequency = 0 [default]
colvars: # scriptedColvarForces = off [default]
colvars: # scriptingAfterBiases = off [default]
colvars: ----------------------------------------------------------------------
colvars:   Initializing a new collective variable.
colvars:   # name = "dist"
colvars:   Initializing a new "distance" component.
colvars:     # name = "" [default]
colvars:     # componentCoeff = 1 [default]
colvars:     # componentExp = 1 [default]
colvars:     # period = 0 [default]
colvars:     # wrapAround = 0 [default]
colvars:     # forceNoPBC = off [default]
colvars:     # scalable = on [default]
colvars:       Initializing atom group "group1".
colvars:       # name = "" [default]
colvars:       # centerToOrigin = off [default]
colvars:       # centerToReference = off [default]
colvars:       # rotateToReference = off [default]
colvars:       # atomsOfGroup = "" [default]
colvars:       # indexGroup = "cation"
colvars:       # psfSegID =  [default]
colvars:       # atomsFile = "" [default]
colvars:       # dummyAtom = ( 0 , 0 , 0 ) [default]
colvars:       # enableFitGradients = on [default]
colvars:       # printAtomIDs = off [default]
colvars:       Atom group "group1" defined with 1 atoms requested.
colvars:       Initializing atom group "group2".
colvars:       # name = "" [default]
colvars:       # centerToOrigin = off [default]
colvars:       # centerToReference = off [default]
colvars:       # rotateToReference = off [default]
colvars:       # atomsOfGroup = "" [default]
colvars:       # indexGroup = "anion"
colvars:       # psfSegID =  [default]
colvars:       # atomsFile = "" [default]
colvars:       # dummyAtom = ( 0 , 0 , 0 ) [default]
colvars:       # enableFitGradients = on [default]
colvars:       # printAtomIDs = off [default]
colvars:       Atom group "group2" defined with 1 atoms requested.
colvars:     # oneSiteSystemForce = off [default]
colvars:     # oneSiteTotalForce = off [default]
colvars:   All components initialized.
colvars:   # timeStepFactor = 1 [default]
colvars:   # width = 0.01
colvars:   # lowerBoundary = 0.75
colvars:   # upperBoundary = 2.5
colvars:   # hardLowerBoundary = off [default]
colvars:   # hardUpperBoundary = off [default]
colvars:   # expandBoundaries = off [default]
colvars:   # extendedLagrangian = off [default]
colvars:   # outputValue = on [default]
colvars:   # outputVelocity = off [default]
colvars:   # outputTotalForce = off [default]
colvars:   # outputAppliedForce = off [default]
colvars:   # subtractAppliedForce = off [default]
colvars:   # runAve = off [default]
colvars:   # corrFunc = off [default]
colvars: ----------------------------------------------------------------------
colvars: Collective variables initialized, 1 in total.
colvars: ----------------------------------------------------------------------
colvars:   Initializing a new "abf" instance.
colvars:   # name = "abf_dist"
colvars:   # colvars = { dist }
colvars:   # stepZeroData = off [default]
colvars:   # outputEnergy = off [default]
colvars:   # outputFreq = 1000
colvars:   # timeStepFactor = 1 [default]
colvars:   WARNING: ABF should not be run without a thermostat or at 0 Kelvin!
colvars:   # applyBias = on [default]
colvars:   # updateBias = on [default]
colvars:   # hideJacobian = off [default]
colvars:   Jacobian (geometric) forces will be included in reported free energy gradients.
colvars:   # fullSamples = 1000
colvars:   # inputPrefix =  [default]
colvars:   # historyFreq = 1000000
colvars:   # shared = off [default]
colvars:   # maxForce =  [default]
colvars:   # integrate = on [default]
colvars:   Finished ABF setup.
colvars: ----------------------------------------------------------------------
colvars:   Initializing a new "harmonicwalls" instance.
colvars:   # name = "wall_dist"
colvars:   # colvars = { dist }
colvars:   # stepZeroData = off [default]
colvars:   # outputEnergy = off [default]
colvars:   # outputFreq = 0 [default]
colvars:   # timeStepFactor = 1 [default]
colvars:   # writeTISamples = off [default]
colvars:   # writeTIPMF = off [default]
colvars:   # forceConstant = 1 [default]
colvars:   # targetForceConstant = -1 [default]
colvars:   # lowerWalls = { 0.7 }
colvars:   # upperWalls = { 2.55 }
colvars:   # lowerWallConstant = 1
colvars:   # upperWallConstant = 1
colvars:   The lower wall force constant for colvar "dist" will be rescaled to 10000 according to the specified width (0.01).
colvars:   The upper wall force constant for colvar "dist" will be rescaled to 10000 according to the specified width (0.01).
colvars: ----------------------------------------------------------------------
colvars: Collective variables biases initialized, 2 in total.
colvars: ----------------------------------------------------------------------
colvars: Collective variables module (re)initialized.
colvars: ----------------------------------------------------------------------
colvars: The restart output state file will be "rest.colvars.state".
colvars: The final output state file will be "equil.colvars.state".
colvars: Opening trajectory file "equil.colvars.traj".
colvars: Setting initial step number from LAMMPS: 100000
colvars: Re-initialized atom group for variable "dist":0/0. 1 atoms: total mass = 1.2767, total charge = 13.626.
colvars: Re-initialized atom group for variable "dist":0/1. 1 atoms: total mass = 3.9411, total charge = -13.626.
colvars:   Prepared sample and gradient buffers at step 100000.
Step          Temp        c_tempSph        Press          TotEng         PotEng         KinEng         E_pair         E_coul         E_long         E_vdwl        Enthalpy
100000   1.0036814      0.98890704     7.5696818     -2618.3964     -4125.424       1507.0276     -4125.424      -5419.9288     -300.89259      1595.3974      5765.4906
Averages over the last 26 of 51 rows, steps 350000 to 600000:
Temp c_tempSph Press TotEng PotEng KinEng E_pair E_coul E_long E_vdwl Enthalpy
1.00767 1.0012 7.37688 -2680.18 -4193.2 1513.02 -4193.2 -5464.23 -300.7 1571.73 5490.17
colvars: Saving collective variables state to "equil.colvars.state".
Loop time of 5779.45 on 1 procs for 500000 steps with 1002 atoms

undump         1
unfix          1
unfix          2
unfix          3
unfix          4

#####################################################
# Production (NVT Sphere with colvars)

reset_timestep 0
fix		         1 all nve/sphere update dipole
fix            2 all langevin 1.0 1.0 1.0 532123 omega yes
fix            3 ions colvars input.colvars input equil output prod

thermo		     10000
thermo_style	 custom step temp c_tempSph press etotal pe ke epair ecoul elong evdwl enthalpy
thermo_modify  norm no
dump	       	 1 all custom 10000 dump.dipoleProd id type x y z q mux muy muz

timestep	     0.005
run		         500000

CITE-CITE-CITE-CITE-CITE-CITE-CITE-CITE-CITE-CITE-CITE-CITE-CITE

Your simulation uses code contributions which should be cited:

- Colvars module (Fiorin2013, plus other works listed for specific features)

% Colvars module:
% Colvars-LAMMPS interface:
% Optimal rotation via flexible fitting:
% distance colvar component:
% harmonicWalls colvar bias implementation:

@article{Fiorin2013,
  author = {Fiorin, Giacomo and Klein, Michael L.{} and H\'enin, J\'er\^ome},
  title = {Using collective variables to drive molecular dynamics simulations},
  journal = {Mol. Phys.},
  year = {2013},
  volume = {111},
  number = {22-23},
  pages = {3345--3362},
  publisher = {Taylor & Francis},
  doi = {10.1080/00268976.2013.813594},
  url = {https://doi.org/10.1080/00268976.2013.813594}
}

% ABF colvar bias implementation:
% Internal-forces free energy estimator:

@article{Henin2010,
  author = {H\'enin, J\'er\^ome and Fiorin, Giacomo and Chipot, Christophe and Klein, Michael L.},
  title = {Exploring multidimensional free energy landscapes using time-dependent biases on collective variables},
  journal = {J. Chem. Theory Comput.},
  year = {2010},
  volume = {6},
  pages = {35-47},
  number = {1},
  doi = {10.1021/ct9004432},
  pmid = {26614317},
  url = {https://doi.org/10.1021/ct9004432}
}

% LAMMPS engine:

@article{Plimpton1995,
  title = {Fast parallel algorithms for short-range molecular dynamics},
  author = {Plimpton, Steve},
  journal = {J. Comp. Phys.},
  year = {1995},
  volume = {117},
  number = {1},
  pages = {1--19},
  doi = {10.1006/jcph.1995.1039},
  url = {https://doi.org/10.1006/jcph.1995.1039}
}

CITE-CITE-CITE-CITE-CITE-CITE-CITE-CITE-CITE-CITE-CITE-CITE-CITE

EwaldDisp initialization ...
Generated 3 of 3 mixed pair_coeff terms from geometric mixing rule
  G vector = 0.55961375,   accuracy = 0.0001
Generated 3 of 3 mixed pair_coeff terms from geometric mixing rule
colvars: Creating proxy instance
colvars: ----------------------------------------------------------------------
colvars: Initializing the collective variables module, version 2022-05-24.
colvars: Please cite Fiorin et al, Mol Phys 2013:
colvars:   https://doi.org/10.1080/00268976.2013.813594
colvars: as well as all other papers listed below for individual features used.
colvars: This version was built with the C++11 standard or higher.
colvars: Using LAMMPS interface, version "2022-05-09".
colvars: ----------------------------------------------------------------------
colvars: Reading new configuration from file "input.colvars":
colvars: # units = "" [default]
colvars: # indexFile = "groups.ndx"
colvars: The following index groups are currently defined:
colvars:   cation (1 atoms)
colvars:   anion (1 atoms)
colvars: # smp = on [default]
colvars: # colvarsTrajFrequency = 1000
colvars: # colvarsRestartFrequency = 0 [default]
colvars: # scriptedColvarForces = off [default]
colvars: # scriptingAfterBiases = off [default]
colvars: ----------------------------------------------------------------------
colvars:   Initializing a new collective variable.
colvars:   # name = "dist"
colvars:   Initializing a new "distance" component.
colvars:     # name = "" [default]
colvars:     # componentCoeff = 1 [default]
colvars:     # componentExp = 1 [default]
colvars:     # period = 0 [default]
colvars:     # wrapAround = 0 [default]
colvars:     # forceNoPBC = off [default]
colvars:     # scalable = on [default]
colvars:       Initializing atom group "group1".
colvars:       # name = "" [default]
colvars:       # centerToOrigin = off [default]
colvars:       # centerToReference = off [default]
colvars:       # rotateToReference = off [default]
colvars:       # atomsOfGroup = "" [default]
colvars:       # indexGroup = "cation"
colvars:       # psfSegID =  [default]
colvars:       # atomsFile = "" [default]
colvars:       # dummyAtom = ( 0 , 0 , 0 ) [default]
colvars:       # enableFitGradients = on [default]
colvars:       # printAtomIDs = off [default]
colvars:       Atom group "group1" defined with 1 atoms requested.
colvars:       Initializing atom group "group2".
colvars:       # name = "" [default]
colvars:       # centerToOrigin = off [default]
colvars:       # centerToReference = off [default]
colvars:       # rotateToReference = off [default]
colvars:       # atomsOfGroup = "" [default]
colvars:       # indexGroup = "anion"
colvars:       # psfSegID =  [default]
colvars:       # atomsFile = "" [default]
colvars:       # dummyAtom = ( 0 , 0 , 0 ) [default]
colvars:       # enableFitGradients = on [default]
colvars:       # printAtomIDs = off [default]
colvars:       Atom group "group2" defined with 1 atoms requested.
colvars:     # oneSiteSystemForce = off [default]
colvars:     # oneSiteTotalForce = off [default]
colvars:   All components initialized.
colvars:   # timeStepFactor = 1 [default]
colvars:   # width = 0.01
colvars:   # lowerBoundary = 0.75
colvars:   # upperBoundary = 2.5
colvars:   # hardLowerBoundary = off [default]
colvars:   # hardUpperBoundary = off [default]
colvars:   # expandBoundaries = off [default]
colvars:   # extendedLagrangian = off [default]
colvars:   # outputValue = on [default]
colvars:   # outputVelocity = off [default]
colvars:   # outputTotalForce = off [default]
colvars:   # outputAppliedForce = off [default]
colvars:   # subtractAppliedForce = off [default]
colvars:   # runAve = off [default]
colvars:   # corrFunc = off [default]
colvars: ----------------------------------------------------------------------
colvars: Collective variables initialized, 1 in total.
colvars: ----------------------------------------------------------------------
colvars:   Initializing a new "abf" instance.
colvars:   # name = "abf_dist"
colvars:   # colvars = { dist }
colvars:   # stepZeroData = off [default]
colvars:   # outputEnergy = off [default]
colvars:   # outputFreq = 1000
colvars:   # timeStepFactor = 1 [default]
colvars:   WARNING: ABF should not be run without a thermostat or at 0 Kelvin!
colvars:   # applyBias = on [default]
colvars:   # updateBias = on [default]
colvars:   # hideJacobian = off [default]
colvars:   Jacobian (geometric) forces will be included in reported free energy gradients.
colvars:   # fullSamples = 1000
colvars:   # inputPrefix =  [default]
colvars:   # historyFreq = 1000000
colvars:   # shared = off [default]
colvars:   # maxForce =  [default]
colvars:   # integrate = on [default]
colvars:   Finished ABF setup.
colvars: ----------------------------------------------------------------------
colvars:   Initializing a new "harmonicwalls" instance.
colvars:   # name = "wall_dist"
colvars:   # colvars = { dist }
colvars:   # stepZeroData = off [default]
colvars:   # outputEnergy = off [default]
colvars:   # outputFreq = 0 [default]
colvars:   # timeStepFactor = 1 [default]
colvars:   # writeTISamples = off [default]
colvars:   # writeTIPMF = off [default]
colvars:   # forceConstant = 1 [default]
colvars:   # targetForceConstant = -1 [default]
colvars:   # lowerWalls = { 0.7 }
colvars:   # upperWalls = { 2.55 }
colvars:   # lowerWallConstant = 1
colvars:   # upperWallConstant = 1
colvars:   The lower wall force constant for colvar "dist" will be rescaled to 10000 according to the specified width (0.01).
colvars:   The upper wall force constant for colvar "dist" will be rescaled to 10000 according to the specified width (0.01).
colvars: ----------------------------------------------------------------------
colvars: Collective variables biases initialized, 2 in total.
colvars: ----------------------------------------------------------------------
colvars: Collective variables module (re)initialized.
colvars: ----------------------------------------------------------------------
colvars: ----------------------------------------------------------------------
colvars: Loading state from file "equil.colvars.state".
colvars:   Restarting collective variable "dist" from value: 2.439
colvars:   Restarting abf bias "abf_dist" from step number 600000.
colvars:   Restarting harmonicwalls bias "wall_dist" from step number 600000.
colvars: ----------------------------------------------------------------------
colvars: The restart output state file will be "rest.colvars.state".
colvars: The final output state file will be "prod.colvars.state".
colvars: Opening trajectory file "prod.colvars.traj".
colvars: Re-initialized atom group for variable "dist":0/0. 1 atoms: total mass = 1.2767, total charge = 13.626.
colvars: Re-initialized atom group for variable "dist":0/1. 1 atoms: total mass = 3.9411, total charge = -13.626.
colvars:   Prepared sample and gradient buffers at step 600000.
Step          Temp        c_tempSph        Press          TotEng         PotEng         KinEng         E_pair         E_coul         E_long         E_vdwl        Enthalpy
0   1.0098901      0.98951982     7.4014216     -2685.3251     -4201.6751      1516.35       -4201.6751     -5482.4612     -301.43423      1582.2203      5512.2034
Averages over the last 26 of 51 rows, steps 250000 to 500000:
Temp c_tempSph Press TotEng PotEng KinEng E_pair E_coul E_long E_vdwl Enthalpy
0.996351 0.997952 7.4901 -2691.57 -4187.59 1496.02 -4187.59 -5485.83 -300.686 1598.93 5604.18
colvars: Saving collective variables state to "prod.colvars.state".
Loop time of 5816.04 on 1 procs for 500000 steps with 1002 atoms

undump         1
unfix          1
unfix          2
unfix          3
unfix          4
